RC net list

* date: 2017.05.26
*

I1 0 1 0
R2 1 2 1
R3 2 0 10
R4 2 3 200
R5 3 0 1K
.DC I1 0 100u 10u

.end